[TITLE]


[JUNCTIONS]
;ID              	Elev        	Demand      	Pattern         
 Junction_58565  	0.0000      	0.280000    	左区平均流量          	;
 Junction_69999  	0.0000      	0.280000    	左区平均流量          	;
 Junction_69995  	0.0000      	0.280000    	左区平均流量          	;
 Junction_69989  	0.0000      	0.280000    	左区平均流量          	;
 Junction_69983  	0.0000      	0.280000    	左区平均流量          	;
 Junction_69978  	0.0000      	0.280000    	左区平均流量          	;
 Junction_69974  	0.0000      	0.280000    	左区平均流量          	;
 Junction_69966  	0.0000      	0.280000    	左区平均流量          	;
 Junction_58564  	0.0000      	0.280000    	左区平均流量          	;
 Junction_69962  	0.0000      	0.280000    	左区平均流量          	;
 Junction_69957  	0.0000      	0.280000    	左区平均流量          	;
 Junction_69952  	0.0000      	0.280000    	左区平均流量          	;
 Junction_69947  	0.0000      	0.280000    	左区平均流量          	;
 Junction_69810  	0.0000      	0.280000    	左区平均流量          	;
 Junction_28849  	0.0000      	0.280000    	左区平均流量          	;
 Junction_34539  	0.0000      	0.280000    	左区平均流量          	;
 Junction_34515  	0.0000      	0.280000    	左区平均流量          	;
 Junction_75506  	0.0000      	0.280000    	左区平均流量          	;
 Junction_54953  	0.0000      	0.280000    	左区平均流量          	;
 Junction_51931  	0.0000      	0.280000    	左区平均流量          	;
 Junction_51921  	0.0000      	0.280000    	左区平均流量          	;
 Junction_51916  	0.0000      	13.900000   	21              	;
 Junction_51912  	0.0000      	0.280000    	左区平均流量          	;
 Junction_51902  	0.0000      	0.280000    	左区平均流量          	;
 Junction_51899  	0.0000      	0.280000    	左区平均流量          	;
 Junction_51894  	0.0000      	0.280000    	左区平均流量          	;
 Junction_51892  	0.0000      	0.280000    	左区平均流量          	;
 Junction_51857  	0.0000      	0.280000    	左区平均流量          	;
 Junction_51844  	0.0000      	0.280000    	左区平均流量          	;
 Junction_51831  	0.0000      	0.280000    	左区平均流量          	;
 Junction_51825  	0.0000      	0.280000    	左区平均流量          	;
 Junction_51824  	0.0000      	0.280000    	左区平均流量          	;
 Junction_59005  	0.0000      	0.280000    	左区平均流量          	;
 Junction_16565  	0.0000      	0.280000    	左区平均流量          	;
 Junction_16549  	0.0000      	0.280000    	左区平均流量          	;
 Junction_75779  	0.0000      	0.280000    	左区平均流量          	;
 Junction_31923  	0.0000      	0.280000    	左区平均流量          	;
 Junction_77025  	0.0000      	0.280000    	左区平均流量          	;
 Junction_31929  	0.0000      	0.280000    	左区平均流量          	;
 Junction_51851  	0.0000      	0.280000    	左区平均流量          	;
 Junction_55221  	0.0000      	0.280000    	左区平均流量          	;
 Junction_54939  	0.0000      	0.280000    	左区平均流量          	;
 Junction_31859  	0.0000      	0.280000    	左区平均流量          	;
 Junction_54934  	0.0000      	0.280000    	左区平均流量          	;
 Junction_28824  	0.0000      	4.450000    	10              	;
 Junction_75882  	0.0000      	0.280000    	左区平均流量          	;
 Junction_64793  	0.0000      	0.280000    	左区平均流量          	;
 Junction_63930  	0.0000      	0.280000    	左区平均流量          	;
 Junction_55787  	0.0000      	0.280000    	左区平均流量          	;
 Junction_31955  	0.0000      	0.280000    	左区平均流量          	;
 Junction_31950  	0.0000      	0.280000    	左区平均流量          	;
 Junction_31947  	0.0000      	0.280000    	左区平均流量          	;
 Junction_31935  	0.0000      	0.280000    	左区平均流量          	;
 Junction_31920  	0.0000      	0.280000    	左区平均流量          	;
 Junction_31919  	0.0000      	0.280000    	左区平均流量          	;
 Junction_31917  	0.0000      	0.280000    	左区平均流量          	;
 Junction_31913  	0.0000      	0.280000    	左区平均流量          	;
 Junction_31908  	0.0000      	0.280000    	左区平均流量          	;
 Junction_31905  	0.0000      	0.280000    	左区平均流量          	;
 Junction_31904  	0.0000      	0.280000    	左区平均流量          	;
 Junction_31902  	0.0000      	0.280000    	左区平均流量          	;
 Junction_31891  	0.0000      	0.280000    	左区平均流量          	;
 Junction_31887  	0.0000      	0.280000    	左区平均流量          	;
 Junction_31883  	0.0000      	0.280000    	左区平均流量          	;
 Junction_31878  	0.0000      	0.280000    	左区平均流量          	;
 Junction_31865  	0.0000      	0.280000    	左区平均流量          	;
 Junction_31854  	0.0000      	0.280000    	左区平均流量          	;
 Junction_31841  	0.0000      	0.280000    	左区平均流量          	;
 Junction_31820  	0.0000      	0.280000    	左区平均流量          	;
 Junction_31816  	0.0000      	0.280000    	左区平均流量          	;
 Junction_31810  	0.0000      	0.280000    	左区平均流量          	;
 Junction_31806  	0.0000      	0.280000    	左区平均流量          	;
 Junction_31805  	0.0000      	0.280000    	左区平均流量          	;
 Junction_31802  	0.0000      	0.280000    	左区平均流量          	;
 Junction_31799  	0.0000      	3.620000    	16              	;
 Junction_31782  	0.0000      	0.280000    	左区平均流量          	;
 Junction_31779  	0.0000      	0.280000    	左区平均流量          	;
 Junction_31771  	0.0000      	0.280000    	左区平均流量          	;
 Junction_71410  	0.0000      	0.280000    	左区平均流量          	;
 Junction_59007  	0.0000      	0.280000    	左区平均流量          	;
 Junction_28815  	0.0000      	6.400000    	3               	;
 Junction_59042  	0.0000      	0.280000    	左区平均流量          	;
 Junction_55777  	0.0000      	0.280000    	左区平均流量          	;
 Junction_54950  	0.0000      	0.280000    	左区平均流量          	;
 Junction_65752  	0.0000      	0.280000    	左区平均流量          	;
 Junction_65747  	0.0000      	0.280000    	左区平均流量          	;
 Junction_65683  	0.0000      	0.280000    	左区平均流量          	;
 Junction_75866  	0.0000      	0.280000    	左区平均流量          	;
 Junction_75831  	0.0000      	0.280000    	左区平均流量          	;
 Junction_51937  	0.0000      	0.280000    	左区平均流量          	;
 Junction_51927  	0.0000      	8.900000    	1               	;
 Junction_81871  	0.0000      	0.280000    	左区平均流量          	;
 Junction_65004  	0.0000      	0.280000    	左区平均流量          	;
 Junction_70537  	0.0000      	0.280000    	左区平均流量          	;
 Junction_55251  	0.0000      	0.280000    	左区平均流量          	;
 Junction_64794  	0.0000      	0.280000    	左区平均流量          	;
 Junction_64778  	0.0000      	0.280000    	左区平均流量          	;
 Junction_64777  	0.0000      	0.280000    	左区平均流量          	;
 Junction_64677  	0.0000      	1.710000    	15              	;
 Junction_57138  	0.0000      	0.280000    	左区平均流量          	;
 Junction_64781  	0.0000      	0.280000    	左区平均流量          	;
 Junction_28971  	0.0000      	0.280000    	左区平均流量          	;
 Junction_78604  	0.0000      	0.280000    	左区平均流量          	;
 Junction_75856  	0.0000      	0.280000    	左区平均流量          	;
 Junction_55246  	0.0000      	0.280000    	左区平均流量          	;
 Junction_46615  	0.0000      	0.280000    	左区平均流量          	;
 Junction_46610  	0.0000      	3.060000    	25              	;
 Junction_46609  	0.0000      	0.280000    	左区平均流量          	;
 Junction_46604  	0.0000      	0.280000    	左区平均流量          	;
 Junction_46599  	0.0000      	0.280000    	左区平均流量          	;
 Junction_46598  	0.0000      	0.280000    	左区平均流量          	;
 Junction_81864  	0.0000      	0.280000    	左区平均流量          	;
 Junction_46593  	0.0000      	6.400000    	24              	;
 Junction_31847  	0.0000      	0.280000    	左区平均流量          	;
 Junction_46589  	0.0000      	0.280000    	左区平均流量          	;
 Junction_46583  	0.0000      	0.280000    	左区平均流量          	;
 Junction_46574  	0.0000      	0.280000    	左区平均流量          	;
 Junction_46573  	0.0000      	0.280000    	左区平均流量          	;
 Junction_46572  	0.0000      	0.280000    	左区平均流量          	;
 Junction_29044  	0.0000      	0.280000    	左区平均流量          	;
 Junction_29042  	0.0000      	0.280000    	左区平均流量          	;
 Junction_29038  	0.0000      	0.280000    	左区平均流量          	;
 Junction_64075  	0.0000      	0.280000    	左区平均流量          	;
 Junction_29035  	0.0000      	0.280000    	左区平均流量          	;
 Junction_29032  	0.0000      	0.280000    	左区平均流量          	;
 Junction_29025  	0.0000      	0.280000    	左区平均流量          	;
 Junction_29021  	0.0000      	0.280000    	左区平均流量          	;
 Junction_29018  	0.0000      	0.280000    	左区平均流量          	;
 Junction_29014  	0.0000      	0.280000    	左区平均流量          	;
 Junction_29007  	0.0000      	0.280000    	左区平均流量          	;
 Junction_29004  	0.0000      	0.280000    	左区平均流量          	;
 Junction_29001  	0.0000      	0.280000    	左区平均流量          	;
 Junction_28999  	0.0000      	0.280000    	左区平均流量          	;
 Junction_28993  	0.0000      	0.280000    	左区平均流量          	;
 Junction_28989  	0.0000      	0.280000    	左区平均流量          	;
 Junction_28985  	0.0000      	0.280000    	左区平均流量          	;
 Junction_28981  	0.0000      	0.280000    	左区平均流量          	;
 Junction_28975  	0.0000      	0.280000    	左区平均流量          	;
 Junction_28967  	0.0000      	0.280000    	左区平均流量          	;
 Junction_28963  	0.0000      	0.280000    	左区平均流量          	;
 Junction_63999  	0.0000      	0.280000    	左区平均流量          	;
 Junction_63997  	0.0000      	0.280000    	左区平均流量          	;
 Junction_28958  	0.0000      	0.280000    	左区平均流量          	;
 Junction_28954  	0.0000      	0.280000    	左区平均流量          	;
 Junction_28944  	0.0000      	0.280000    	左区平均流量          	;
 Junction_28940  	0.0000      	0.280000    	左区平均流量          	;
 Junction_63976  	0.0000      	0.280000    	左区平均流量          	;
 Junction_28936  	0.0000      	0.280000    	左区平均流量          	;
 Junction_31813  	0.0000      	0.280000    	左区平均流量          	;
 Junction_63971  	0.0000      	0.280000    	左区平均流量          	;
 Junction_28932  	0.0000      	0.280000    	左区平均流量          	;
 Junction_75508  	0.0000      	0.280000    	左区平均流量          	;
 Junction_28928  	0.0000      	0.280000    	左区平均流量          	;
 Junction_55242  	0.0000      	0.280000    	左区平均流量          	;
 Junction_28921  	0.0000      	0.280000    	左区平均流量          	;
 Junction_28911  	0.0000      	0.280000    	左区平均流量          	;
 Junction_63947  	0.0000      	0.280000    	左区平均流量          	;
 Junction_28905  	0.0000      	0.280000    	左区平均流量          	;
 Junction_28898  	0.0000      	0.280000    	左区平均流量          	;
 Junction_46414  	0.0000      	0.280000    	左区平均流量          	;
 Junction_46413  	0.0000      	0.280000    	左区平均流量          	;
 Junction_63931  	0.0000      	0.280000    	左区平均流量          	;
 Junction_28892  	0.0000      	0.280000    	左区平均流量          	;
 Junction_28885  	0.0000      	0.280000    	左区平均流量          	;
 Junction_63922  	0.0000      	0.280000    	左区平均流量          	;
 Junction_46401  	0.0000      	0.280000    	左区平均流量          	;
 Junction_64001  	0.0000      	0.280000    	左区平均流量          	;
 Junction_28879  	0.0000      	0.280000    	左区平均流量          	;
 Junction_46397  	0.0000      	0.280000    	左区平均流量          	;
 Junction_31899  	0.0000      	0.280000    	左区平均流量          	;
 Junction_46390  	0.0000      	0.280000    	左区平均流量          	;
 Junction_28870  	0.0000      	0.280000    	左区平均流量          	;
 Junction_46385  	0.0000      	0.280000    	左区平均流量          	;
 Junction_28865  	0.0000      	0.280000    	左区平均流量          	;
 Junction_46382  	0.0000      	0.280000    	左区平均流量          	;
 Junction_46379  	0.0000      	0.280000    	左区平均流量          	;
 Junction_28854  	0.0000      	0.280000    	左区平均流量          	;
 Junction_28853  	0.0000      	0.280000    	左区平均流量          	;
 Junction_46370  	0.0000      	0.280000    	左区平均流量          	;
 Junction_46369  	0.0000      	0.280000    	左区平均流量          	;
 Junction_28845  	0.0000      	0.280000    	左区平均流量          	;
 Junction_46362  	0.0000      	0.280000    	左区平均流量          	;
 Junction_46361  	0.0000      	0.280000    	左区平均流量          	;
 Junction_28841  	0.0000      	0.280000    	左区平均流量          	;
 Junction_46356  	0.0000      	0.280000    	左区平均流量          	;
 Junction_46352  	0.0000      	0.280000    	左区平均流量          	;
 Junction_28829  	0.0000      	0.280000    	左区平均流量          	;
 Junction_46347  	0.0000      	0.280000    	左区平均流量          	;
 Junction_28825  	0.0000      	0.280000    	左区平均流量          	;
 Junction_46343  	0.0000      	0.280000    	左区平均流量          	;
 Junction_28821  	0.0000      	0.280000    	左区平均流量          	;
 Junction_28818  	0.0000      	0.280000    	左区平均流量          	;
 Junction_71385  	0.0000      	0.280000    	左区平均流量          	;
 Junction_28812  	0.0000      	0.280000    	左区平均流量          	;
 Junction_28809  	0.0000      	0.280000    	左区平均流量          	;
 Junction_28805  	0.0000      	0.280000    	左区平均流量          	;
 Junction_28802  	0.0000      	0.280000    	左区平均流量          	;
 Junction_28784  	0.0000      	0.280000    	左区平均流量          	;
 Junction_28780  	0.0000      	0.280000    	左区平均流量          	;
 Junction_28776  	0.0000      	0.280000    	左区平均流量          	;
 Junction_28773  	0.0000      	8.330000    	26              	;
 Junction_28770  	0.0000      	0.280000    	左区平均流量          	;
 Junction_28761  	0.0000      	0.280000    	左区平均流量          	;
 Junction_28757  	0.0000      	0.280000    	左区平均流量          	;
 Junction_28751  	0.0000      	0.280000    	左区平均流量          	;
 Junction_28748  	0.0000      	0.280000    	左区平均流量          	;
 Junction_28745  	0.0000      	0.280000    	左区平均流量          	;
 Junction_28740  	0.0000      	0.280000    	左区平均流量          	;
 Junction_28737  	0.0000      	0.280000    	左区平均流量          	;
 Junction_28723  	0.0000      	0.280000    	左区平均流量          	;
 Junction_28720  	0.0000      	0.280000    	左区平均流量          	;
 Junction_28717  	0.0000      	4.510000    	19              	;
 Junction_28711  	0.0000      	0.280000    	左区平均流量          	;
 Junction_28700  	0.0000      	0.280000    	左区平均流量          	;
 Junction_28693  	0.0000      	0.280000    	左区平均流量          	;
 Junction_28688  	0.0000      	0.280000    	左区平均流量          	;
 Junction_28685  	0.0000      	0.280000    	左区平均流量          	;
 Junction_28682  	0.0000      	0.280000    	左区平均流量          	;
 Junction_28679  	0.0000      	0.280000    	左区平均流量          	;
 Junction_28678  	0.0000      	0.280000    	左区平均流量          	;
 Junction_57127  	0.0000      	0.280000    	左区平均流量          	;
 Junction_75502  	0.0000      	1.120000    	28              	;
 Junction_28789  	0.0000      	0.280000    	左区平均流量          	;
 Junction_31875  	0.0000      	0.280000    	左区平均流量          	;
 Junction_31894  	0.0000      	0.280000    	左区平均流量          	;
 Junction_76012  	0.0000      	0.280000    	左区平均流量          	;
 Junction_57140  	0.0000      	0.280000    	左区平均流量          	;
 Junction_71374  	0.0000      	0.280000    	左区平均流量          	;
 Junction_31871  	0.0000      	0.280000    	9               	;
 Junction_59006  	0.0000      	0.280000    	左区平均流量          	;
 Junction_28950  	0.0000      	0.280000    	左区平均流量          	;
 Junction_64770  	0.0000      	0.280000    	左区平均流量          	;
 Junction_57714  	0.0000      	0.280000    	左区平均流量          	;
 Junction_55392  	0.0000      	0.280000    	左区平均流量          	;
 Junction_31862  	0.0000      	0.280000    	左区平均流量          	;
 Junction_55219  	0.0000      	0.280000    	左区平均流量          	;
 Junction_75806  	0.0000      	0.280000    	左区平均流量          	;
 Junction_75512  	0.0000      	3.610000    	29              	;
 Junction_59045  	0.0000      	0.280000    	左区平均流量          	;
 Junction_63970  	0.0000      	0.280000    	左区平均流量          	;
 Junction_75499  	0.0000      	0.280000    	左区平均流量          	;
 Junction_75894  	0.0000      	0.280000    	左区平均流量          	;
 Junction_16566  	0.0000      	0.280000    	左区平均流量          	;
 Junction_31851  	0.0000      	0.280000    	左区平均流量          	;
 Junction_77973  	0.0000      	0.280000    	左区平均流量          	;
 Junction_31932  	0.0000      	0.280000    	左区平均流量          	;
 Junction_75816  	0.0000      	0.280000    	左区平均流量          	;
 Junction_60334  	0.0000      	0.280000    	左区平均流量          	;
 Junction_77779  	0.0000      	0.280000    	左区平均流量          	;
 Junction_75813  	0.0000      	0.280000    	左区平均流量          	;
 Junction_28754  	0.0000      	0.280000    	左区平均流量          	;
 Junction_31793  	0.0000      	0.280000    	左区平均流量          	;
 Junction_31844  	0.0000      	0.280000    	左区平均流量          	;
 Junction_58167  	0.0000      	0.840000    	31              	;
 Junction_57089  	0.0000      	0.280000    	左区平均流量          	;
 Junction_77034  	0.0000      	0.280000    	左区平均流量          	;
 Junction_55370  	0.0000      	0.280000    	左区平均流量          	;
 Junction_28920  	0.0000      	0.280000    	左区平均流量          	;
 Junction_78775  	0.0000      	0.280000    	左区平均流量          	;
 Junction_57771  	0.0000      	0.280000    	左区平均流量          	;
 Junction_51896  	0.0000      	0.280000    	左区平均流量          	;
 Junction_59071  	0.0000      	0.280000    	左区平均流量          	;
 Junction_59061  	0.0000      	0.280000    	左区平均流量          	;
 Junction_59044  	0.0000      	5.840000    	7               	;
 Junction_59038  	0.0000      	0.280000    	左区平均流量          	;
 Junction_59036  	0.0000      	0.280000    	左区平均流量          	;
 Junction_59010  	0.0000      	0.280000    	左区平均流量          	;
 Junction_31874  	0.0000      	0.280000    	左区平均流量          	;
 Junction_63975  	0.0000      	0.280000    	左区平均流量          	;
 Junction_55361  	0.0000      	0.280000    	左区平均流量          	;
 Junction_58572  	3.0000      	22.790000   	22              	;
 Junction_71396  	0.0000      	0.280000    	左区平均流量          	;
 Junction_75950  	0.0000      	0.280000    	左区平均流量          	;
 Junction_75935  	0.0000      	0.280000    	左区平均流量          	;
 Junction_75912  	0.0000      	0.280000    	左区平均流量          	;
 Junction_75905  	0.0000      	0.280000    	左区平均流量          	;
 Junction_75871  	0.0000      	0.280000    	左区平均流量          	;
 Junction_75861  	0.0000      	0.280000    	左区平均流量          	;
 Junction_75842  	0.0000      	0.280000    	左区平均流量          	;
 Junction_75808  	0.0000      	36.400000   	6               	;
 Junction_75807  	0.0000      	0.280000    	左区平均流量          	;
 Junction_75781  	0.0000      	0.280000    	左区平均流量          	;
 Junction_75769  	0.0000      	0.280000    	左区平均流量          	;
 Junction_75763  	0.0000      	0.280000    	左区平均流量          	;
 Junction_46368  	0.0000      	0.280000    	左区平均流量          	;
 Junction_75520  	0.0000      	0.280000    	左区平均流量          	;
 Junction_75505  	0.0000      	0.280000    	左区平均流量          	;
 Junction_75503  	0.0000      	0.280000    	左区平均流量          	;
 Junction_75493  	0.0000      	0.280000    	左区平均流量          	;
 Junction_75486  	0.0000      	0.280000    	左区平均流量          	;
 Junction_75483  	0.0000      	10.000000   	2               	;
 Junction_75479  	0.0000      	0.280000    	左区平均流量          	;
 Junction_57776  	0.0000      	0.280000    	左区平均流量          	;
 Junction_57770  	0.0000      	0.280000    	左区平均流量          	;
 Junction_57743  	0.0000      	0.280000    	左区平均流量          	;
 Junction_57739  	0.0000      	0.280000    	左区平均流量          	;
 Junction_57737  	0.0000      	0.280000    	左区平均流量          	;
 Junction_57726  	0.0000      	0.280000    	左区平均流量          	;
 Junction_57725  	0.0000      	0.280000    	左区平均流量          	;
 Junction_57705  	0.0000      	0.280000    	左区平均流量          	;
 Junction_57702  	0.0000      	0.280000    	左区平均流量          	;
 Junction_56375  	0.0000      	0.280000    	左区平均流量          	;
 Junction_75794  	0.0000      	0.280000    	左区平均流量          	;
 Junction_57141  	0.0000      	0.280000    	左区平均流量          	;
 Junction_57131  	0.0000      	0.280000    	左区平均流量          	;
 Junction_57130  	0.0000      	0.280000    	左区平均流量          	;
 Junction_57124  	0.0000      	0.280000    	左区平均流量          	;
 Junction_57119  	0.0000      	0.280000    	左区平均流量          	;
 Junction_57116  	0.0000      	0.280000    	左区平均流量          	;
 Junction_57114  	0.0000      	0.280000    	左区平均流量          	;
 Junction_57110  	0.0000      	0.280000    	左区平均流量          	;
 Junction_57105  	0.0000      	0.280000    	左区平均流量          	;
 Junction_57102  	0.0000      	0.280000    	左区平均流量          	;
 Junction_57095  	0.0000      	0.280000    	左区平均流量          	;
 Junction_57093  	0.0000      	0.280000    	左区平均流量          	;
 Junction_51819  	0.0000      	0.280000    	左区平均流量          	;
 Junction_75775  	0.0000      	0.280000    	左区平均流量          	;
 Junction_57748  	0.0000      	0.280000    	左区平均流量          	;
 Junction_55782  	0.0000      	0.280000    	左区平均流量          	;
 Junction_55778  	0.0000      	0.280000    	左区平均流量          	;
 Junction_55773  	0.0000      	0.280000    	左区平均流量          	;
 Junction_55772  	0.0000      	0.280000    	左区平均流量          	;
 Junction_55760  	3.0000      	0.280000    	左区平均流量          	;
 Junction_29011  	0.0000      	0.280000    	左区平均流量          	;
 Junction_55495  	0.0000      	21.400000   	20              	;
 Junction_55493  	0.0000      	0.280000    	左区平均流量          	;
 Junction_55416  	0.0000      	0.280000    	左区平均流量          	;
 Junction_55404  	0.0000      	0.280000    	左区平均流量          	;
 Junction_55400  	0.0000      	0.280000    	左区平均流量          	;
 Junction_55399  	0.0000      	7.220000    	18              	;
 Junction_28923  	0.0000      	0.280000    	左区平均流量          	;
 Junction_55382  	0.0000      	1.400000    	27              	;
 Junction_55381  	0.0000      	0.280000    	左区平均流量          	;
 Junction_55369  	0.0000      	0.280000    	左区平均流量          	;
 Junction_55342  	0.0000      	0.280000    	左区平均流量          	;
 Junction_31943  	0.0000      	0.280000    	左区平均流量          	;
 Junction_51867  	0.0000      	8.070000    	11              	;
 Junction_55252  	0.0000      	0.280000    	左区平均流量          	;
 Junction_55247  	0.0000      	0.280000    	左区平均流量          	;
 Junction_55244  	0.0000      	0.280000    	左区平均流量          	;
 Junction_55243  	0.0000      	0.280000    	左区平均流量          	;
 Junction_55239  	0.0000      	0.280000    	左区平均流量          	;
 Junction_55236  	0.0000      	0.280000    	左区平均流量          	;
 Junction_55235  	0.0000      	0.280000    	左区平均流量          	;
 Junction_55234  	0.0000      	0.280000    	左区平均流量          	;
 Junction_55230  	0.0000      	0.280000    	左区平均流量          	;
 Junction_55229  	0.0000      	0.280000    	左区平均流量          	;
 Junction_55225  	0.0000      	0.280000    	左区平均流量          	;
 Junction_55217  	0.0000      	0.280000    	左区平均流量          	;
 Junction_55215  	0.0000      	0.280000    	左区平均流量          	;
 Junction_55214  	0.0000      	0.280000    	左区平均流量          	;
 Junction_55213  	0.0000      	0.280000    	左区平均流量          	;
 Junction_54963  	0.0000      	0.280000    	左区平均流量          	;
 Junction_54959  	0.0000      	0.280000    	左区平均流量          	;
 Junction_54954  	0.0000      	0.280000    	左区平均流量          	;
 Junction_54930  	0.0000      	0.280000    	左区平均流量          	;
 Junction_54923  	0.0000      	0.280000    	左区平均流量          	;
 Junction_31796  	0.0000      	0.280000    	左区平均流量          	;
 Junction_54912  	0.0000      	0.280000    	左区平均流量          	;
 Junction_54907  	0.0000      	0.280000    	左区平均流量          	;
 Junction_54904  	0.0000      	0.280000    	左区平均流量          	;
 Junction_31940  	0.0000      	0.280000    	左区平均流量          	;
 Junction_19414  	0.0000      	0.280000    	左区平均流量          	;
 Junction_19408  	0.0000      	0.280000    	左区平均流量          	;
 Junction_19405  	0.0000      	0.280000    	左区平均流量          	;
 Junction_19402  	0.0000      	0.280000    	左区平均流量          	;
 Junction_19398  	3.0000      	0.280000    	左区平均流量          	;
 Junction_31790  	0.0000      	0.280000    	左区平均流量          	;
 Junction_64076  	0.0000      	0.280000    	左区平均流量          	;
 Junction_57721  	0.0000      	0.280000    	左区平均流量          	;
 Junction_31787  	0.0000      	0.280000    	左区平均流量          	;
 Junction_75925  	0.0000      	0.280000    	左区平均流量          	;
 Junction_34534  	0.0000      	0.280000    	左区平均流量          	;
 Junction_51822  	0.0000      	0.280000    	左区平均流量          	;
 Junction_71392  	0.0000      	0.280000    	左区平均流量          	;
 Junction_71378  	0.0000      	0.280000    	左区平均流量          	;
 Junction_71368  	0.0000      	0.280000    	左区平均流量          	;
 Junction_71366  	0.0000      	0.280000    	左区平均流量          	;
 Junction_58575  	0.0000      	0.280000    	左区平均流量          	;
 Junction_19411  	0.0000      	0.280000    	左区平均流量          	;
 Junction_31776  	0.0000      	10.830000   	23              	;
 Junction_29028  	0.0000      	0.280000    	左区平均流量          	;
 Junction_57709  	0.0000      	0.280000    	左区平均流量          	;
 Junction_34518  	0.0000      	0.280000    	左区平均流量          	;
 WaterMeterSet_57042	3.0000      	0.280000    	左区平均流量          	;
 WaterMeterSet_63248	0.0000      	0.280000    	左区平均流量          	;
 1               	0.0000      	7.510000    	34              	;
 2               	0.0000      	0.280000    	左区平均流量          	;
 3               	0.0000      	0.280000    	左区平均流量          	;
 4               	0.0000      	0.280000    	左区平均流量          	;
 5               	0.0000      	0.280000    	左区平均流量          	;
 6               	0.0000      	0.280000    	左区平均流量          	;
 7               	0.0000      	0.280000    	左区平均流量          	;
 8               	0.0000      	0.280000    	左区平均流量          	;
 9               	0.0000      	0.280000    	左区平均流量          	;
 10              	0.0000      	0.280000    	左区平均流量          	;
 12              	0.0000      	0.280000    	左区平均流量          	;
 13              	0.0000      	0.280000    	左区平均流量          	;
 14              	0.0000      	4.720000    	4               	;
 15              	0.0000      	0.280000    	左区平均流量          	;
 16              	0.0000      	0.280000    	左区平均流量          	;
 17              	0.0000      	0.280000    	左区平均流量          	;
 18              	0.0000      	0.280000    	左区平均流量          	;
 19              	0.0000      	0.280000    	左区平均流量          	;
 20              	0.0000      	0.280000    	左区平均流量          	;
 21              	0.0000      	0.280000    	左区平均流量          	;
 22              	0.0000      	0.840000    	12              	;
 23              	0.0000      	0.280000    	左区平均流量          	;
 24              	0.0000      	0.280000    	左区平均流量          	;
 25              	0.0000      	1.400000    	13              	;
 26              	0.0000      	0.280000    	左区平均流量          	;
 27              	0.0000      	0.280000    	左区平均流量          	;
 28              	0.0000      	0.280000    	左区平均流量          	;
 29              	0.0000      	0.280000    	左区平均流量          	;
 30              	0.0000      	0.280000    	左区平均流量          	;
 31              	0.0000      	0.280000    	左区平均流量          	;
 32              	0.0000      	0.280000    	左区平均流量          	;
 49              	0.0000      	0.280000    	左区平均流量          	;
 50              	0.0000      	0.280000    	左区平均流量          	;
 51              	0.0000      	0.280000    	左区平均流量          	;
 52              	0.0000      	0.280000    	左区平均流量          	;
 54              	0.0000      	0.280000    	左区平均流量          	;
 55              	0.0000      	0.280000    	左区平均流量          	;
 56              	0.0000      	0.280000    	左区平均流量          	;
 57              	0.0000      	0.280000    	左区平均流量          	;
 58              	0.0000      	0.280000    	左区平均流量          	;
 59              	0.0000      	0.280000    	左区平均流量          	;
 60              	0.0000      	0.280000    	左区平均流量          	;
 61              	0.0000      	0.280000    	左区平均流量          	;
 62              	0.0000      	0.280000    	左区平均流量          	;
 63              	0.0000      	0.280000    	左区平均流量          	;
 64              	0.0000      	0.280000    	左区平均流量          	;
 65              	0.0000      	0.280000    	左区平均流量          	;
 66              	0.0000      	0.280000    	左区平均流量          	;
 67              	0.0000      	0.280000    	左区平均流量          	;
 68              	0.0000      	0.280000    	左区平均流量          	;
 69              	0.0000      	0.280000    	左区平均流量          	;
 70              	0.0000      	0.280000    	左区平均流量          	;
 71              	0.0000      	0.280000    	左区平均流量          	;
 72              	0.0000      	0.280000    	左区平均流量          	;
 73              	0.0000      	0.280000    	左区平均流量          	;
 94              	0.0000      	0.280000    	左区平均流量          	;
 95              	0.0000      	0.280000    	左区平均流量          	;
 96              	0.0000      	0.280000    	左区平均流量          	;
 97              	0.0000      	0.280000    	左区平均流量          	;
 98              	0.0000      	0.280000    	左区平均流量          	;
 99              	0.0000      	0.280000    	左区平均流量          	;
 100             	0.0000      	0.280000    	左区平均流量          	;
 101             	0.0000      	0.280000    	左区平均流量          	;
 102             	0.0000      	0.280000    	左区平均流量          	;
 103             	0.0000      	0.280000    	左区平均流量          	;
 104             	0.0000      	0.280000    	左区平均流量          	;
 105             	0.0000      	0.280000    	左区平均流量          	;
 106             	0.0000      	0.280000    	左区平均流量          	;
 107             	0.0000      	0.280000    	左区平均流量          	;
 108             	0.0000      	0.280000    	左区平均流量          	;
 109             	0.0000      	0.280000    	左区平均流量          	;
 110             	0.0000      	0.280000    	左区平均流量          	;
 111             	0.0000      	0.280000    	左区平均流量          	;
 112             	0.0000      	0.280000    	左区平均流量          	;
 113             	0.0000      	0.280000    	左区平均流量          	;
 125             	0.0000      	8.330000    	30              	;
 126             	0.0000      	0.280000    	左区平均流量          	;
 127             	0.0000      	0.280000    	左区平均流量          	;

[RESERVOIRS]
;ID              	Head        	Pattern         
 11              	29.0000     	唯胜路压力监测         	;
 48              	28.5000     	兴浦路压力监测         	;